  15
  -452.868592801228     
 N    -0.72789335     1.02017208     1.45406545
 N    -1.11520884    -1.24548254     1.46815945
 C    -1.67991086     0.01817741     1.50290233
 C     0.24591636    -1.48332131     1.48881817
 C     1.15728491    -0.48381672     1.48279614
 C     2.63797940    -0.70026328     1.50316893
 C     0.67485733     0.89760308     1.49238300
 O     1.38719192     1.89746534     1.52609938
 O    -2.88768646     0.21530904     1.55524985
 H     0.52797061    -2.52697888     1.50310323
 H    -1.08933547     1.96575691     1.48471573
 H    -1.77641397    -2.00551122     1.51487118
 H     2.87568359    -1.76259012     1.49519021
 H     3.07733878    -0.24713395     2.39013895
 H     3.10189279    -0.22928273     0.63819859
