  15
  -452.85549092833196     
 N    -1.19785239    -0.95476966    -0.10201976
 C    -1.23910279     0.41758392     0.08270217
 N     0.02637587     0.98303711     0.09107635
 C     1.26895846     0.35021984    -0.05901097
 C     1.18804469    -1.09786196    -0.24736035
 C    -0.03456241    -1.67950700    -0.25978335
 O    -2.27754267     1.05106861     0.22165909
 O     2.31319816     0.99895495    -0.02818040
 H    -0.16862003    -2.74443151    -0.39435117
 H     0.05153683     1.98604444     0.22283222
 H    -2.09755889    -1.40848668    -0.11460824
 C     2.47068479    -1.84846356    -0.41508457
 H     3.01881668    -1.47781396    -1.28022088
 H     3.11130548    -1.70742922     0.45439107
 H     2.28475330    -2.91313134    -0.54612822
