  15
  -452.868467567496     
 N    -0.72803470     1.02013719     1.45404914
 N    -1.11508116    -1.24555174     1.46836330
 C    -1.67991079     0.01806395     1.50293374
 C     0.24610075    -1.48329912     1.48893816
 C     1.15734367    -0.48372212     1.48272328
 C     2.63807575    -0.69990576     1.50310074
 C     0.67475078     0.89766209     1.49234296
 O     1.38701737     1.89749128     1.52588030
 O    -2.88775830     0.21494513     1.55527112
 H     0.52824298    -2.52693187     1.50335197
 H    -1.08948864     1.96572538     1.48471132
 H    -1.77623242    -2.00559659     1.51510900
 H     2.87596041    -1.76220323     1.49541979
 H     3.07736217    -0.24638892     2.38990029
 H     3.10188468    -0.22903833     0.63801628
